/*--------------------------------*- C++ -*----------------------------------*\
| =========                 |                                                 |
| \\      /  F ield         | OpenFOAM: The Open Source CFD Toolbox           |
|  \\    /   O peration     | Version:  2406                                  |
|   \\  /    A nd           | Website:  www.openfoam.com                      |
|    \\/     M anipulation  |                                                 |
\*---------------------------------------------------------------------------*/
FoamFile
{
    version     2.0;
    format      binary;
    arch        "LSB;label=32;scalar=64";
    class       polyBoundaryMesh;
    location    "constant/zoneone/polyMesh";
    object      boundary;
}
// * * * * * * * * * * * * * * * * * * * * * * * * * * * * * * * * * * * * * //

6
(
    inlet
    {
        type            patch;
        nFaces          20;
        startFace       3880;
    }
    zoneone_to_zonetwo
    {
        type            mappedPatch;
        inGroups        1(mappedPatch);
        nFaces          20;
        startFace       3900;
        sampleMode      nearestPatchFace;
        sampleRegion    zonetwo;
        samplePatch     zonetwo_to_zoneone;
        sampleDatabase  true;
    }
    upperWall
    {
        type            wall;
        inGroups        1(wall);
        nFaces          100;
        startFace       3920;
    }
    axis
    {
        type            empty;
        inGroups        1(empty);
        nFaces          0;
        startFace       4020;
    }
    front
    {
        type            wedge;
        inGroups        1(wedge);
        nFaces          2000;
        startFace       4020;
    }
    back
    {
        type            wedge;
        inGroups        1(wedge);
        nFaces          2000;
        startFace       6020;
    }
)

// ************************************************************************* //
