/*--------------------------------*- C++ -*----------------------------------*\
| =========                 |                                                 |
| \\      /  F ield         | OpenFOAM: The Open Source CFD Toolbox           |
|  \\    /   O peration     | Version:  v2112                                 |
|   \\  /    A nd           | Website:  www.openfoam.com                      |
|    \\/     M anipulation  |                                                 |
\*---------------------------------------------------------------------------*/
FoamFile
{
    version     2.0;
    format      ascii;
    class       volScalarField;
    object      IDefault;
    location    "0";
}
// * * * * * * * * * * * * * * * * * * * * * * * * * * * * * * * * * * * * * //

dimensions      [ 1 0 -3 0 0 0 0 ];

internalField   uniform 0;

boundaryField
{
    ".*"
    {
        type            greyDiffusiveRadiation;
        T               T;
        emissivityMode  lookup;
        emissivity      uniform 1;
        absorbtivity    uniform 1;
        value		 uniform 0;
    } 

    axis
    {
        type            empty;
    }
    front
    {
        type            wedge;
    }
    back
    {
        type            wedge;
    }
	   
}


// ************************************************************************* //
