/*--------------------------------*- C++ -*----------------------------------*\
  =========                 |
  \\      /  F ield         | OpenFOAM: The Open Source CFD Toolbox
   \\    /   O peration     | Website:  https://openfoam.org
    \\  /    A nd           | Version:  7
     \\/     M anipulation  |
\*---------------------------------------------------------------------------*/
FoamFile
{
    version     2.0;
    format      ascii;
    class       volVectorField;
    location    "0/zonetwo";
    object      U;
}
// * * * * * * * * * * * * * * * * * * * * * * * * * * * * * * * * * * * * * //

dimensions      [ 0 1 -1 0 0 0 0 ];

internalField   uniform (0 0 0);

boundaryField
{
    #includeEtc "caseDicts/setConstraintTypes"
    
    outlet
    {
        type            zeroGradient;
    }
    

    zonetwo_to_zoneone
    {
        type                zeroGradient;
        // type            mappedMixed;
        // field           U;              // optional field name
        // value           uniform (0 0 0);
        // refValue        $value;
        // refGradient     uniform 0.0;
        // valueFraction   uniform 1.0;
    }

    fixedWalls
    {
        type            noSlip;
    }
    frontAndBack
    {
        type            empty;
    }
    zonetwo_to_zoneone
    {
        type                zeroGradient;
        // type            mappedMixed;
        // field           U;              // optional field name
        // value           uniform (0 0 0);
        // refValue        $value;
        // refGradient     uniform 0.0;
        // valueFraction   uniform 1.0;
    }
    outlet
    {
        type            zeroGradient;
    }
    upperWall
    {
        type            noSlip;
    }
    axis
    {
        type            empty;
    }
    front
    {
        type            wedge;
    }
    back
    {
        type            wedge;
    }
    
}

// ************************************************************************* //
