/*--------------------------------*- C++ -*----------------------------------*\
| =========                 |                                                 |
| \\      /  F ield         | OpenFOAM: The Open Source CFD Toolbox           |
|  \\    /   O peration     | Version:  v2112                                 |
|   \\  /    A nd           | Website:  www.openfoam.com                      |
|    \\/     M anipulation  |                                                 |
\*---------------------------------------------------------------------------*/
FoamFile
{
    version     2.0;
    format      ascii;
    class       volScalarField;
    location    "0";
    object      T;
}
// * * * * * * * * * * * * * * * * * * * * * * * * * * * * * * * * * * * * * //

dimensions      [0 0 0 1 0 0 0];

internalField   uniform 0; //1000K temperature of the gas inside domain

boundaryField
{
    fixedWall_Bottom
    {
        type            fixedValue;
        value           uniform 1000;  //1000K at wall
    }
    
    fixedWall_Right
    {
        type            fixedValue; //0K at wall
        value           uniform 0;
    }
    
    fixedWall_Left
    {
        type            fixedValue; //0K at wall
        value           uniform 0;
    }
    
    fixedWall_Top
    {
        type            fixedValue;
        value           uniform 0;  //0K at wall
    }

    /*front
    {
        type              zeroGradient;
        //value           uniform 0;
    }
    
    Back
    {
        type            zeroGradient;
        //value           uniform 0;
    }*/
    
    frontAndBack
    {
        type            empty;
    }
}


// ************************************************************************* //
