/*--------------------------------*- C++ -*----------------------------------*\
| =========                 |                                                 |
| \\      /  F ield         | OpenFOAM: The Open Source CFD Toolbox           |
|  \\    /   O peration     | Version:  2306                                  |
|   \\  /    A nd           | Website:  www.openfoam.com                      |
|    \\/     M anipulation  |                                                 |
\*---------------------------------------------------------------------------*/
FoamFile
{
    version     2.0;
    format      ascii;
    arch        "LSB;label=32;scalar=64";
    class       polyBoundaryMesh;
    location    "constant/polyMesh";
    object      boundary;
}
// * * * * * * * * * * * * * * * * * * * * * * * * * * * * * * * * * * * * * //

5
(
    fixedWall_Bottom
    {
        type            wall;
        inGroups        1(wall);
        nFaces          10;
        startFace       180;
    }
    fixedWall_Right
    {
        type            wall;
        inGroups        1(wall);
        nFaces          10;
        startFace       190;
    }
    fixedWall_Left
    {
        type            wall;
        inGroups        1(wall);
        nFaces          10;
        startFace       200;
    }
    fixedWall_Top
    {
        type            wall;
        inGroups        1(wall);
        nFaces          10;
        startFace       210;
    }
    frontAndBack
    {
        type            empty;
        inGroups        1(empty);
        nFaces          200;
        startFace       220;
    }
)

// ************************************************************************* //
