/*--------------------------------*- C++ -*----------------------------------*\
| =========                 |                                                 |
| \\      /  F ield         | OpenFOAM: The Open Source CFD Toolbox           |
|  \\    /   O peration     | Version:  v2112                                 |
|   \\  /    A nd           | Website:  www.openfoam.com                      |
|    \\/     M anipulation  |                                                 |
\*---------------------------------------------------------------------------*/
FoamFile
{
    version     2.0;
    format      ascii;
    class       dictionary;
    object      fvSchemes;
}
// * * * * * * * * * * * * * * * * * * * * * * * * * * * * * * * * * * * * * //

ddtSchemes
{
    default         Euler;
    //default         steadyState;
}

gradSchemes
{
    default         Gauss linear;
    //grad(p)         Gauss linear;
}

divSchemes
{
    default         none;
    /*div(phi,U)      Gauss linear;
    div(phi,T)      Gauss upwind;*/ // of no use
    div(Ji,Ii_h)    Gauss linearUpwind grad(Ii_h);
}

laplacianSchemes
{
    default         Gauss linear corrected;
}

interpolationSchemes
{
    default         linear;
}

snGradSchemes
{
    //default         orthogonal;
    default         corrected;
}

/*fluxRequired
{
    default         yes;
}

// ************************************************************************* //
