/*--------------------------------*- C++ -*----------------------------------*\
| =========                 |                                                 |
| \\      /  F ield         | OpenFOAM: The Open Source CFD Toolbox           |
|  \\    /   O peration     | Version:  v2112                                 |
|   \\  /    A nd           | Website:  www.openfoam.com                      |
|    \\/     M anipulation  |                                                 |
\*---------------------------------------------------------------------------*/
FoamFile
{
    version     2.0;
    format      ascii;
    class       dictionary;
    object      fvSolution;
}
// * * * * * * * * * * * * * * * * * * * * * * * * * * * * * * * * * * * * * //

solvers
{
    T
    {
       // solver          GAMG;
       // smoother        symGaussSeidel;
       // preconditioner  DILU;
       // tolerance       1e-07;
       // relTol          0;
	solver          PCG;
        preconditioner  DIC;
        smnoother       stmGaussSeidel;
        tolerance       1e-06;
        relTol          0.001;
    }
    
    Ii
    {
        solver              GAMG;
        tolerance           1e-6;
        relTol              0;
        smoother            symGaussSeidel;
        cacheAgglomeration  true;
        nCellsInCoarsestLevel   10;
        agglomerator        faceAreaPair;
        mergeLevels         1;
        maxIter             5;
        nPreSweeps          0;
        nPostSweeps         1;
    }
    
    /*Ii
    {
        solver              PBiCG;
	preconditioner      DILU;
        tolerance           1e-6;
        relTol              0;
        smoother            symGaussSeidel;
        maxIter             5;
        nPostSweeps         1;
    }*/
    
   G
   {
        solver          PCG;
	preconditioner  DIC;
        smoother        symGaussSeidel;
        tolerance       1e-05;
        relTol          0.0001;
    }
}

SIMPLE
{
    nNonOrthogonalCorrectors 0;
    pRefCell        0;
    pRefValue       0;

    residualControl
    {
	"ILambda.*"	1e-5;
    }
}

relaxationFactors
{
    fields
    {
    }
    equations
    {
	"ILambda.*"	0.7;
    }
}

// ************************************************************************* //
