/*--------------------------------*- C++ -*----------------------------------*\
| =========                 |                                                 |
| \\      /  F ield         | OpenFOAM: The Open Source CFD Toolbox           |
|  \\    /   O peration     | Version:  plus                                  |
|   \\  /    A nd           | Web:      www.OpenFOAM.com                      |
|    \\/     M anipulation  |                                                 |
\*---------------------------------------------------------------------------*/
FoamFile
{
    version     2.0;
    format      ascii;
    class       dictionary;
    location    "system";
    object      fvSolution;
}
// * * * * * * * * * * * * * * * * * * * * * * * * * * * * * * * * * * * * * //

solvers
{
   T
    {
        solver          GAMG;
	preconditioner  DIC;
        smoother        symGaussSeidel;
        tolerance       1e-05;
        relTol          0.0001;
    }

    Ii
    {
        solver              PBiCG;
	preconditioner      DILU;
        tolerance           1e-6;
        relTol              0;
        smoother            symGaussSeidel;
        maxIter             5;
        nPostSweeps         1;
    }
    
    G
    {
        solver          GAMG;
        preconditioner  DIC;
	smoother        symGaussSeidel;//$p_rgh;
        tolerance       1e-05;
        relTol          0.1;
    }
}

SIMPLE
{
    nNonOrthogonalCorrectors 0;
    pRefCell        0;
    pRefValue       0;

    residualControl
    {
       // p_rgh           1e-2;
        //U               1e-3;
       // h               1e-3;
        G               1e-3;

        // possibly check turbulence fields
       // "(k|epsilon|omega)" 1e-3;
        "ILambda.*"     1e-3;
    }
}

relaxationFactors
{
    fields
    {
       // rho             1.0;
        //p_rgh           0.7;
    }
    equations
    {
       // U               0.2;
       // h               0.2;
       // k               0.5;
       // epsilon         0.5;
       "ILambda.*"     0.7;
	"G"              0.7;
    }
}


// ************************************************************************* //
